Circuit: * D:\Projects\Calculator Battery Retrofits\HP_classic\simulation\HP_charger_rev_pol_MAX40203.asc

Direct Newton iteration for .op point succeeded.
.step charger=0
.step charger=1

Date: Wed Nov 25 12:39:27 2020
Total elapsed time: 0.657 seconds.

tnom = 27
temp = 27
method = modified trap
totiter = 2093
traniter = 2082
tranpoints = 1042
accept = 1042
rejected = 0
matrix size = 80
fillins = 40
solver = Normal
Matrix Compiler1: 5.03 KB object code size  1.8/1.0/[0.4]
Matrix Compiler2: 6.56 KB object code size  1.0/1.1/[0.6]


